<?xml version="1.0" encoding="UTF-8"?>

<!-- generated on 2023-07-19 15:31:43 by Eclipse SUMO netconvert Version 1.13.0
<configuration xmlns:xsi="http://www.w3.org/2001/XMLSchema-instance" xsi:noNamespaceSchemaLocation="http://sumo.dlr.de/xsd/netconvertConfiguration.xsd">

    <input>
        <opendrive-files value="..\resources\myresources\FourWaySignal\FourWaySignal.xodr"/>
    </input>

    <output>
        <output-file value="outputfolder_FourWaySignal\FourWaySignal.net.xml"/>
    </output>

    <processing>
        <geometry.max-grade.fix value="false"/>
    </processing>

    <tls_building>
        <tls.left-green.time value="0"/>
    </tls_building>

    <junctions>
        <rectangular-lane-cut value="true"/>
    </junctions>

    <report>
        <aggregate-warnings value="5"/>
    </report>

</configuration>
-->

<net version="1.9" junctionCornerDetail="5" rectangularLaneCut="true" limitTurnSpeed="5.50" xmlns:xsi="http://www.w3.org/2001/XMLSchema-instance" xsi:noNamespaceSchemaLocation="http://sumo.dlr.de/xsd/net_file.xsd">

    <location netOffset="117.21,80.39" convBoundary="0.00,0.00,265.96,154.43" origBoundary="-139.43,-80.39,148.75,74.04" projParameter="!"/>

    <type id="bidirectional" priority="1" speed="1.39" disallow="pedestrian tram rail_urban rail rail_electric rail_fast ship" width="3.65"/>
    <type id="border" priority="0" speed="1.39" disallow="all" discard="1" width="0.10"/>
    <type id="driving" priority="1" speed="13.89" disallow="pedestrian tram rail_urban rail rail_electric rail_fast ship" width="3.65"/>
    <type id="entry" priority="1" speed="22.22" disallow="pedestrian tram rail_urban rail rail_electric rail_fast ship" width="3.65"/>
    <type id="exit" priority="1" speed="22.22" disallow="pedestrian tram rail_urban rail rail_electric rail_fast ship" width="3.65"/>
    <type id="median" priority="0" speed="1.39" disallow="all" discard="1" width="0.10"/>
    <type id="mwyEntry" priority="1" speed="22.22" allow="private emergency authority army vip passenger hov taxi bus coach delivery truck trailer motorcycle evehicle custom1 custom2" width="3.65"/>
    <type id="mwyExit" priority="1" speed="22.22" allow="private emergency authority army vip passenger hov taxi bus coach delivery truck trailer motorcycle evehicle custom1 custom2" width="3.65"/>
    <type id="none" priority="0" speed="1.39" disallow="all" discard="1" width="1.00"/>
    <type id="offRamp" priority="1" speed="22.22" allow="private emergency authority army vip passenger hov taxi bus coach delivery truck trailer motorcycle evehicle custom1 custom2" width="3.65"/>
    <type id="onRamp" priority="1" speed="22.22" allow="private emergency authority army vip passenger hov taxi bus coach delivery truck trailer motorcycle evehicle custom1 custom2" width="3.65"/>
    <type id="parking" priority="1" speed="1.39" disallow="pedestrian tram rail_urban rail rail_electric rail_fast ship" width="2.50"/>
    <type id="rail" priority="3" speed="33.33" allow="rail_urban rail rail_electric rail_fast" width="3.65"/>
    <type id="restricted" priority="0" speed="13.89" disallow="all" width="3.65"/>
    <type id="roadWorks" priority="0" speed="1.39" allow="authority" width="3.65"/>
    <type id="shoulder" priority="0" speed="1.39" disallow="all" discard="1" width="1.00"/>
    <type id="special1" priority="1" speed="22.22" allow="custom1" discard="1" width="3.65"/>
    <type id="special2" priority="1" speed="22.22" allow="custom2" discard="1" width="3.65"/>
    <type id="special3" priority="1" speed="22.22" allow="custom1 custom2" discard="1" width="3.65"/>
    <type id="stop" priority="1" speed="13.89" disallow="pedestrian tram rail_urban rail rail_electric rail_fast ship" width="3.65"/>
    <type id="tram" priority="2" speed="13.89" allow="tram" width="3.65"/>

    <edge id=":0.begin_0" function="internal">
        <lane id=":0.begin_0_0" index="0" disallow="pedestrian tram rail_urban rail rail_electric rail_fast ship" speed="3.82" length="5.11" width="3.50" shape="124.97,154.84 123.81,155.91 122.86,156.13 122.11,155.50 121.57,154.02"/>
    </edge>
    <edge id=":1#1_0" function="internal">
        <lane id=":1#1_0_0" index="0" disallow="pedestrian tram rail_urban rail rail_electric rail_fast ship" speed="17.88" length="3.00" width="3.50" shape="122.66,39.22 122.14,36.27"/>
    </edge>
    <edge id=":1#1_1" function="internal">
        <lane id=":1#1_1_0" index="0" allow="emergency authority" speed="17.88" length="3.08" width="3.50" shape="128.19,35.20 128.48,36.07 128.87,36.60 129.26,37.13 129.55,38.00"/>
        <lane id=":1#1_1_1" index="1" disallow="pedestrian tram rail_urban rail rail_electric rail_fast ship" speed="17.88" length="3.08" width="3.50" shape="125.58,35.66 126.11,38.61"/>
    </edge>
    <edge id=":1#2_0" function="internal">
        <lane id=":1#2_0_0" index="0" disallow="pedestrian tram rail_urban rail rail_electric rail_fast ship" speed="17.88" length="8.00" width="3.50" shape="121.45,32.36 120.05,24.48"/>
    </edge>
    <edge id=":1#2_1" function="internal">
        <lane id=":1#2_1_0" index="0" disallow="pedestrian tram rail_urban rail rail_electric rail_fast ship" speed="17.88" length="8.00" width="3.50" shape="123.50,23.87 124.89,31.75"/>
    </edge>
    <edge id=":1.end_0" function="internal">
        <lane id=":1.end_0_0" index="0" disallow="pedestrian tram rail_urban rail rail_electric rail_fast ship" speed="3.82" length="5.11" width="3.50" shape="115.78,0.30 116.41,-1.14 117.20,-1.72 118.13,-1.44 119.22,-0.30"/>
    </edge>
    <edge id=":10_0" function="internal">
        <lane id=":10_0_0" index="0" disallow="pedestrian tram rail_urban rail rail_electric rail_fast ship" speed="8.86" length="16.00" width="3.50" shape="143.00,85.51 138.28,86.56 134.90,88.49 132.86,91.32 132.17,95.04"/>
    </edge>
    <edge id=":10_1" function="internal">
        <lane id=":10_1_0" index="0" disallow="pedestrian tram rail_urban rail rail_electric rail_fast ship" speed="17.88" length="21.96" width="3.50" shape="143.00,85.51 121.20,88.32">
            <param key="signalID" value="97 98"/>
        </lane>
        <lane id=":10_1_1" index="1" disallow="pedestrian tram rail_urban rail rail_electric rail_fast ship" speed="17.88" length="21.96" width="3.50" shape="142.62,82.04 120.85,84.84">
            <param key="signalID" value="97 98"/>
        </lane>
    </edge>
    <edge id=":10_3" function="internal">
        <lane id=":10_3_0" index="0" disallow="pedestrian tram rail_urban rail rail_electric rail_fast ship" speed="10.52" length="4.45" width="3.50" shape="142.23,78.56 137.79,78.26">
            <param key="signalID" value="101 93 94"/>
        </lane>
    </edge>
    <edge id=":10_14" function="internal">
        <lane id=":10_14_0" index="0" disallow="pedestrian tram rail_urban rail rail_electric rail_fast ship" speed="10.52" length="20.29" width="3.50" shape="137.79,78.26 136.25,78.15 131.65,75.46 128.44,70.48 126.63,63.22">
            <param key="signalID" value="101 93 94"/>
        </lane>
    </edge>
    <edge id=":10_4" function="internal">
        <lane id=":10_4_0" index="0" disallow="pedestrian tram rail_urban rail rail_electric rail_fast ship" speed="7.96" length="13.68" width="3.50" shape="133.57,62.29 134.56,66.63 136.21,69.63 138.51,71.29 141.47,71.60">
            <param key="signalID" value="100 95"/>
        </lane>
    </edge>
    <edge id=":10_5" function="internal">
        <lane id=":10_5_0" index="0" disallow="pedestrian tram rail_urban rail rail_electric rail_fast ship" speed="17.88" length="32.37" width="3.50" shape="130.10,62.75 130.98,71.28 131.64,80.74 132.04,89.28 132.17,95.04">
            <param key="signalID" value="93 94"/>
        </lane>
    </edge>
    <edge id=":10_6" function="internal">
        <lane id=":10_6_0" index="0" disallow="pedestrian tram rail_urban rail rail_electric rail_fast ship" speed="10.73" length="10.99" width="3.50" shape="130.10,62.75 130.56,71.97 130.21,73.70">
            <param key="signalID" value="93 94 96"/>
        </lane>
    </edge>
    <edge id=":10_15" function="internal">
        <lane id=":10_15_0" index="0" disallow="pedestrian tram rail_urban rail rail_electric rail_fast ship" speed="10.73" length="15.91" width="3.50" shape="130.21,73.70 129.18,78.72 125.94,83.01 120.85,84.84">
            <param key="signalID" value="93 94 96"/>
        </lane>
    </edge>
    <edge id=":10_7" function="internal">
        <lane id=":10_7_0" index="0" disallow="pedestrian tram rail_urban rail rail_electric rail_fast ship" speed="7.37" length="12.06" width="3.50" shape="119.46,70.91 122.94,70.13 125.30,68.58 126.53,66.28 126.63,63.22">
            <param key="signalID" value="99"/>
        </lane>
    </edge>
    <edge id=":10_8" function="internal">
        <lane id=":10_8_0" index="0" disallow="pedestrian tram rail_urban rail rail_electric rail_fast ship" speed="17.88" length="21.86" width="3.50" shape="119.81,74.39 141.47,71.60"/>
        <lane id=":10_8_1" index="1" disallow="pedestrian tram rail_urban rail rail_electric rail_fast ship" speed="17.88" length="21.86" width="3.50" shape="120.16,77.88 141.85,75.08">
            <param key="signalID" value="100 101"/>
        </lane>
    </edge>
    <edge id=":10_10" function="internal">
        <lane id=":10_10_0" index="0" disallow="pedestrian tram rail_urban rail rail_electric rail_fast ship" speed="9.29" length="4.18" width="3.50" shape="120.50,81.36 124.67,81.70">
            <param key="signalID" value="102"/>
        </lane>
    </edge>
    <edge id=":10_16" function="internal">
        <lane id=":10_16_0" index="0" disallow="pedestrian tram rail_urban rail rail_electric rail_fast ship" speed="9.29" length="16.74" width="3.50" shape="124.67,81.70 125.63,81.77 129.29,84.19 131.47,88.62 132.17,95.04">
            <param key="signalID" value="102"/>
        </lane>
    </edge>
    <edge id=":10_11" function="internal">
        <lane id=":10_11_0" index="0" disallow="pedestrian tram rail_urban rail rail_electric rail_fast ship" speed="7.11" length="11.74" width="3.50" shape="128.67,95.03 128.22,91.81 126.82,89.63 124.48,88.46 121.20,88.32">
            <param key="signalID" value="98 95 96 97"/>
        </lane>
    </edge>
    <edge id=":10_12" function="internal">
        <lane id=":10_12_0" index="0" disallow="pedestrian tram rail_urban rail rail_electric rail_fast ship" speed="17.88" length="31.89" width="3.50" shape="128.67,95.03 128.46,88.65 127.91,79.11 127.23,69.57 126.63,63.22">
            <param key="signalID" value="93 95 96"/>
        </lane>
    </edge>
    <edge id=":10_13" function="internal">
        <lane id=":10_13_0" index="0" disallow="pedestrian tram rail_urban rail rail_electric rail_fast ship" speed="11.25" length="6.64" width="3.50" shape="128.67,95.03 129.36,88.43">
            <param key="signalID" value="102 95 96 94"/>
        </lane>
    </edge>
    <edge id=":10_17" function="internal">
        <lane id=":10_17_0" index="0" disallow="pedestrian tram rail_urban rail rail_electric rail_fast ship" speed="11.25" length="19.82" width="3.50" shape="129.36,88.43 129.52,86.84 132.00,80.79 136.11,76.87 141.85,75.08">
            <param key="signalID" value="102 95 96 94"/>
        </lane>
    </edge>
    <edge id=":3#1_0" function="internal">
        <lane id=":3#1_0_0" index="0" disallow="pedestrian tram rail_urban rail rail_electric rail_fast ship" speed="17.88" length="8.11" width="3.50" shape="78.29,89.15 70.09,88.49"/>
        <lane id=":3#1_0_1" index="1" disallow="pedestrian tram rail_urban rail rail_electric rail_fast ship" speed="17.88" length="8.11" width="3.50" shape="78.51,85.66 70.42,85.00"/>
        <lane id=":3#1_0_2" index="2" disallow="pedestrian tram rail_urban rail rail_electric rail_fast ship" speed="17.88" length="8.11" width="3.50" shape="78.72,82.16 70.75,81.52"/>
    </edge>
    <edge id=":3#1_3" function="internal">
        <lane id=":3#1_3_0" index="0" disallow="pedestrian tram rail_urban rail rail_electric rail_fast ship" speed="17.88" length="7.83" width="3.50" shape="71.40,74.55 79.15,75.18"/>
        <lane id=":3#1_3_1" index="1" disallow="pedestrian tram rail_urban rail rail_electric rail_fast ship" speed="17.88" length="7.83" width="3.50" shape="71.07,78.03 78.94,78.67"/>
    </edge>
    <edge id=":3#2_0" function="internal">
        <lane id=":3#2_0_0" index="0" disallow="pedestrian tram rail_urban rail rail_electric rail_fast ship" speed="17.88" length="8.97" width="3.50" shape="87.22,90.66 84.97,89.91 83.38,89.53 81.76,89.36 79.39,89.22"/>
        <lane id=":3#2_0_1" index="1" disallow="pedestrian tram rail_urban rail rail_electric rail_fast ship" speed="17.88" length="8.97" width="3.50" shape="88.37,87.35 85.85,86.51 84.08,86.09 82.26,85.89 79.60,85.72"/>
        <lane id=":3#2_0_2" index="2" disallow="pedestrian tram rail_urban rail rail_electric rail_fast ship" speed="17.88" length="8.97" width="3.50" shape="89.52,84.05 86.73,83.12 84.77,82.64 82.76,82.41 79.82,82.23"/>
    </edge>
    <edge id=":3#2_3" function="internal">
        <lane id=":3#2_3_0" index="0" allow="emergency authority" speed="17.88" length="12.35" width="3.49" shape="80.35,73.50 84.32,73.21 87.08,72.35 89.77,71.82 93.54,72.53"/>
        <lane id=":3#2_3_1" index="1" disallow="pedestrian tram rail_urban rail rail_electric rail_fast ship" speed="17.88" length="12.35" width="3.50" shape="80.24,75.24 83.89,75.21 86.44,74.93 88.92,74.95 92.39,75.83"/>
        <lane id=":3#2_3_2" index="2" disallow="pedestrian tram rail_urban rail rail_electric rail_fast ship" speed="17.88" length="12.35" width="3.50" shape="80.03,78.74 83.40,78.69 85.75,78.38 88.04,78.35 91.24,79.13"/>
    </edge>
    <edge id=":3#3_0" function="internal">
        <lane id=":3#3_0_0" index="0" disallow="pedestrian tram rail_urban rail rail_electric rail_fast ship" speed="17.88" length="2.13" width="3.50" shape="89.44,89.62 87.40,90.72"/>
        <lane id=":3#3_0_1" index="1" disallow="pedestrian tram rail_urban rail rail_electric rail_fast ship" speed="17.88" length="2.13" width="3.50" shape="90.58,86.31 88.56,87.42"/>
        <lane id=":3#3_0_2" index="2" allow="emergency authority" speed="17.88" length="2.13" width="3.50" shape="91.45,83.81 89.71,84.12"/>
    </edge>
    <edge id=":3#3_3" function="internal">
        <lane id=":3#3_3_0" index="0" disallow="pedestrian tram rail_urban rail rail_electric rail_fast ship" speed="17.88" length="2.17" width="3.50" shape="93.73,72.59 95.72,71.42"/>
        <lane id=":3#3_3_1" index="1" disallow="pedestrian tram rail_urban rail rail_electric rail_fast ship" speed="17.88" length="2.17" width="3.50" shape="92.58,75.89 94.57,74.73"/>
        <lane id=":3#3_3_2" index="2" disallow="pedestrian tram rail_urban rail rail_electric rail_fast ship" speed="17.88" length="2.17" width="3.50" shape="91.43,79.20 93.43,78.04"/>
        <lane id=":3#3_3_3" index="3" allow="emergency authority" speed="17.88" length="2.17" width="3.50" shape="90.57,81.66 92.28,81.34"/>
    </edge>
    <edge id=":3#4_0" function="internal">
        <lane id=":3#4_0_0" index="0" disallow="pedestrian tram rail_urban rail rail_electric rail_fast ship" speed="17.88" length="12.68" width="3.50" shape="102.75,89.56 98.80,89.96 96.05,90.49 93.37,90.59 89.63,89.69"/>
        <lane id=":3#4_0_1" index="1" disallow="pedestrian tram rail_urban rail rail_electric rail_fast ship" speed="17.88" length="12.68" width="3.50" shape="102.65,86.06 99.08,86.45 96.59,87.01 94.16,87.17 90.77,86.38"/>
    </edge>
    <edge id=":3#4_2" function="internal">
        <lane id=":3#4_2_0" index="0" disallow="pedestrian tram rail_urban rail rail_electric rail_fast ship" speed="17.88" length="8.33" width="3.50" shape="95.91,71.48 97.75,71.96 99.04,72.15 100.36,72.15 102.27,72.07"/>
        <lane id=":3#4_2_1" index="1" disallow="pedestrian tram rail_urban rail rail_electric rail_fast ship" speed="17.88" length="8.33" width="3.50" shape="94.77,74.79 96.96,75.38 98.51,75.62 100.08,75.64 102.36,75.57"/>
        <lane id=":3#4_2_2" index="2" disallow="pedestrian tram rail_urban rail rail_electric rail_fast ship" speed="17.88" length="8.33" width="3.50" shape="93.62,78.10 96.18,78.80 97.97,79.10 99.80,79.14 102.46,79.06"/>
        <lane id=":3#4_2_3" index="3" disallow="pedestrian tram rail_urban rail rail_electric rail_fast ship" speed="17.88" length="8.33" width="3.50" shape="92.47,81.40 95.39,82.21 97.44,82.58 99.53,82.64 102.56,82.56"/>
    </edge>
    <edge id=":3.begin_0" function="internal">
        <lane id=":3.begin_0_0" index="0" disallow="pedestrian tram rail_urban rail rail_electric rail_fast ship" speed="3.82" length="5.11" width="3.50" shape="-0.30,69.99 -1.44,68.91 -1.72,67.97 -1.15,67.19 0.30,66.55"/>
    </edge>
    <edge id=":7#1_0" function="internal">
        <lane id=":7#1_0_0" index="0" disallow="pedestrian tram rail_urban rail rail_electric rail_fast ship" speed="17.88" length="8.15" width="3.50" shape="167.56,85.48 165.21,85.29 163.62,84.75 162.03,84.24 159.68,84.10"/>
        <lane id=":7#1_0_1" index="1" disallow="pedestrian tram rail_urban rail rail_electric rail_fast ship" speed="17.88" length="8.15" width="3.50" shape="167.46,81.99 165.07,81.79 163.47,81.26 161.86,80.74 159.48,80.61"/>
        <lane id=":7#1_0_2" index="2" disallow="pedestrian tram rail_urban rail rail_electric rail_fast ship" speed="17.88" length="8.15" width="3.50" shape="167.35,78.49 164.94,78.29 163.32,77.76 161.69,77.25 159.28,77.11"/>
    </edge>
    <edge id=":7#1_3" function="internal">
        <lane id=":7#1_3_0" index="0" disallow="pedestrian tram rail_urban rail rail_electric rail_fast ship" speed="17.88" length="8.16" width="3.50" shape="158.89,70.12 167.09,69.77"/>
        <lane id=":7#1_3_1" index="1" disallow="pedestrian tram rail_urban rail rail_electric rail_fast ship" speed="17.88" length="8.16" width="3.50" shape="159.08,73.62 167.20,73.27"/>
    </edge>
    <edge id=":7#2_0" function="internal">
        <lane id=":7#2_0_0" index="0" disallow="pedestrian tram rail_urban rail rail_electric rail_fast ship" speed="17.88" length="3.05" width="3.50" shape="170.99,85.47 168.09,85.47"/>
        <lane id=":7#2_0_1" index="1" disallow="pedestrian tram rail_urban rail rail_electric rail_fast ship" speed="17.88" length="3.05" width="3.50" shape="170.93,81.97 167.99,81.97"/>
        <lane id=":7#2_0_2" index="2" allow="emergency authority" speed="17.88" length="3.05" width="3.50" shape="170.89,79.33 169.98,79.20 169.39,78.89 168.79,78.59 167.88,78.47"/>
        <lane id=":7#2_0_3" index="3" allow="emergency authority" speed="17.88" length="3.05" width="1.72" shape="170.85,76.69 169.93,76.56 169.33,76.27 168.72,75.98 167.81,75.86"/>
    </edge>
    <edge id=":7#2_4" function="internal">
        <lane id=":7#2_4_0" index="0" disallow="pedestrian tram rail_urban rail rail_electric rail_fast ship" speed="17.88" length="3.08" width="3.50" shape="167.62,69.76 170.73,69.69"/>
        <lane id=":7#2_4_1" index="1" disallow="pedestrian tram rail_urban rail rail_electric rail_fast ship" speed="17.88" length="3.08" width="3.50" shape="167.73,73.26 170.79,73.19"/>
    </edge>
    <edge id=":7#3_0" function="internal">
        <lane id=":7#3_0_0" index="0" disallow="pedestrian tram rail_urban rail rail_electric rail_fast ship" speed="17.88" length="8.07" width="3.50" shape="179.60,83.67 177.26,83.92 175.71,84.52 174.15,85.14 171.81,85.46"/>
        <lane id=":7#3_0_1" index="1" disallow="pedestrian tram rail_urban rail rail_electric rail_fast ship" speed="17.88" length="8.07" width="3.50" shape="179.63,80.17 177.27,80.42 175.69,81.02 174.12,81.64 171.75,81.96"/>
        <lane id=":7#3_0_2" index="2" disallow="pedestrian tram rail_urban rail rail_electric rail_fast ship" speed="17.88" length="8.07" width="3.50" shape="179.67,76.67 171.66,76.68"/>
    </edge>
    <edge id=":7#3_3" function="internal">
        <lane id=":7#3_3_0" index="0" disallow="pedestrian tram rail_urban rail rail_electric rail_fast ship" speed="17.88" length="8.14" width="3.50" shape="171.55,69.68 179.74,69.67"/>
        <lane id=":7#3_3_1" index="1" disallow="pedestrian tram rail_urban rail rail_electric rail_fast ship" speed="17.88" length="8.14" width="3.50" shape="171.61,73.18 179.70,73.17"/>
    </edge>
    <edge id=":7.end_0" function="internal">
        <lane id=":7.end_0_0" index="0" disallow="pedestrian tram rail_urban rail rail_electric rail_fast ship" speed="3.82" length="5.11" width="3.50" shape="266.16,81.53 267.36,82.55 267.70,83.47 267.16,84.29 265.76,85.01"/>
    </edge>

    <edge id="-0" from="0.begin" to="10" priority="1" type="driving" shape="123.27,154.43 123.74,152.49 124.19,150.54 124.62,148.58 125.04,146.63 125.45,144.67 125.84,142.71 126.21,140.74 126.57,138.78 126.91,136.81 127.24,134.83 127.55,132.86 127.84,130.88 128.12,128.90 128.38,126.92 128.63,124.93 128.86,122.94 129.08,120.96 129.28,118.97 129.46,116.97 129.63,114.98 129.78,112.99 129.91,110.99 130.03,109.00 130.14,107.00 130.22,105.00 130.30,103.00 130.35,101.00 130.39,99.00 130.42,97.00 130.42,95.04">
        <lane id="-0_0" index="0" disallow="pedestrian tram rail_urban rail rail_electric rail_fast ship" speed="17.88" length="59.56" width="3.50" shape="121.57,154.02 122.03,152.08 122.48,150.15 122.91,148.21 123.33,146.27 123.73,144.32 124.12,142.38 124.49,140.42 124.85,138.47 125.19,136.51 125.51,134.55 125.82,132.59 126.11,130.63 126.39,128.66 126.65,126.69 126.89,124.72 127.12,122.75 127.34,120.77 127.53,118.80 127.72,116.82 127.88,114.84 128.03,112.86 128.17,110.88 128.29,108.90 128.39,106.91 128.48,104.93 128.55,102.95 128.60,100.96 128.64,98.97 128.67,96.99 128.67,95.03" type="driving"/>
    </edge>
    <edge id="-1#0" from="10" to="1#1" priority="1" type="driving" shape="128.36,62.98 128.10,61.00 127.82,59.02 127.53,57.04 127.21,55.07 126.89,53.09 126.60,51.43 124.12,37.44">
        <lane id="-1#0_0" index="0" disallow="pedestrian tram rail_urban rail rail_electric rail_fast ship" speed="17.88" length="24.32" width="3.50" shape="126.63,63.22 126.37,61.24 126.09,59.27 125.80,57.31 125.49,55.35 125.16,53.39 124.87,51.73 122.66,39.22" type="driving"/>
    </edge>
    <edge id="-1#1" from="1#1" to="1#2" priority="1" type="driving">
        <lane id="-1#1_0" index="0" disallow="pedestrian tram rail_urban rail rail_electric rail_fast ship" speed="17.88" length="3.97" width="3.50" shape="122.14,36.27 121.45,32.36" type="driving"/>
    </edge>
    <edge id="-1#2" from="1#2" to="1.end" priority="1" type="driving">
        <lane id="-1#2_0" index="0" disallow="pedestrian tram rail_urban rail rail_electric rail_fast ship" speed="17.88" length="24.55" width="3.50" shape="120.05,24.48 115.78,0.30" type="driving"/>
    </edge>
    <edge id="-3#0" from="3.begin" to="3#1" priority="1" type="driving" shape="0.00,68.27 52.84,77.35 54.81,77.68 56.78,78.00 58.76,78.30 60.74,78.58 62.72,78.85 64.71,79.10 66.69,79.33 68.68,79.55 70.67,79.75 72.66,79.94 74.46,80.10 74.66,80.11 75.01,80.14">
        <lane id="-3#0_0" index="0" disallow="pedestrian tram rail_urban rail rail_electric rail_fast ship" speed="17.88" length="71.58" width="3.50" shape="0.89,63.10 53.73,72.18 55.66,72.50 57.59,72.81 59.53,73.10 61.46,73.38 63.40,73.64 65.35,73.89 67.29,74.12 69.24,74.33 71.18,74.53 71.40,74.55" type="driving"/>
        <lane id="-3#0_1" index="1" disallow="pedestrian tram rail_urban rail rail_electric rail_fast ship" speed="17.88" length="71.58" width="3.50" shape="0.30,66.55 53.13,75.63 55.09,75.96 57.05,76.27 59.02,76.56 60.98,76.85 62.95,77.11 64.92,77.36 66.89,77.59 68.87,77.81 70.84,78.01 71.07,78.03" type="driving"/>
    </edge>
    <edge id="-3#1" from="3#1" to="3#2" priority="1" type="driving" shape="75.01,80.14 76.65,80.27 78.65,80.40 80.64,80.53 82.64,80.63 83.14,80.66 83.74,80.68">
        <lane id="-3#1_0" index="0" allow="emergency authority" speed="17.88" length="1.10" width="0.00" shape="79.26,73.43 80.35,73.50" type="driving"/>
        <lane id="-3#1_1" index="1" disallow="pedestrian tram rail_urban rail rail_electric rail_fast ship" speed="17.88" length="1.10" width="3.50" shape="79.15,75.18 80.24,75.24" type="driving"/>
        <lane id="-3#1_2" index="2" disallow="pedestrian tram rail_urban rail rail_electric rail_fast ship" speed="17.88" length="1.10" width="3.50" shape="78.94,78.67 80.03,78.74" type="driving"/>
    </edge>
    <edge id="-3#2" from="3#2" to="3#3" priority="1" type="driving" shape="83.74,80.68 84.64,80.72 86.62,81.26 88.61,81.87 90.61,82.58 91.08,82.74">
        <lane id="-3#2_0" index="0" disallow="pedestrian tram rail_urban rail rail_electric rail_fast ship" speed="17.88" length="0.20" width="3.49" shape="93.54,72.53 93.73,72.59" type="driving"/>
        <lane id="-3#2_1" index="1" disallow="pedestrian tram rail_urban rail rail_electric rail_fast ship" speed="17.88" length="0.20" width="3.50" shape="92.39,75.83 92.58,75.89" type="driving"/>
        <lane id="-3#2_2" index="2" disallow="pedestrian tram rail_urban rail rail_electric rail_fast ship" speed="17.88" length="0.20" width="3.50" shape="91.24,79.13 91.43,79.20" type="driving"/>
        <lane id="-3#2_3" index="3" allow="emergency authority" speed="17.88" length="0.20" width="1.71" shape="90.38,81.59 90.57,81.66" type="driving"/>
    </edge>
    <edge id="-3#3" from="3#3" to="3#4" priority="1" type="driving" shape="91.08,82.74 92.61,83.27 94.63,83.87 96.66,84.28 98.69,84.40">
        <lane id="-3#3_0" index="0" disallow="pedestrian tram rail_urban rail rail_electric rail_fast ship" speed="17.88" length="0.20" width="3.50" shape="95.72,71.42 95.91,71.48" type="driving"/>
        <lane id="-3#3_1" index="1" disallow="pedestrian tram rail_urban rail rail_electric rail_fast ship" speed="17.88" length="0.20" width="3.50" shape="94.57,74.73 94.77,74.79" type="driving"/>
        <lane id="-3#3_2" index="2" disallow="pedestrian tram rail_urban rail rail_electric rail_fast ship" speed="17.88" length="0.20" width="3.50" shape="93.43,78.04 93.62,78.10" type="driving"/>
        <lane id="-3#3_3" index="3" disallow="pedestrian tram rail_urban rail rail_electric rail_fast ship" speed="17.88" length="0.20" width="3.50" shape="92.28,81.34 92.47,81.40" type="driving"/>
    </edge>
    <edge id="-3#4" from="3#4" to="10" priority="1" type="driving" shape="98.75,84.40 100.72,84.36 102.74,84.31 104.77,84.24 106.80,84.15 108.82,84.04 110.85,83.92 112.87,83.78 114.89,83.63 116.91,83.46 118.93,83.27 120.68,83.10">
        <lane id="-3#4_0" index="0" disallow="pedestrian tram rail_urban rail rail_electric rail_fast ship" speed="17.88" length="17.61" width="3.50" shape="102.27,72.07 104.28,72.00 106.21,71.91 108.14,71.81 110.07,71.70 111.99,71.57 113.91,71.42 115.84,71.26 117.76,71.08 119.46,70.91" type="driving"/>
        <lane id="-3#4_1" index="1" disallow="pedestrian tram rail_urban rail rail_electric rail_fast ship" speed="17.88" length="17.61" width="3.50" shape="102.36,75.57 102.47,75.56 104.42,75.49 106.38,75.41 108.33,75.31 110.29,75.19 112.24,75.06 114.19,74.91 116.14,74.74 118.10,74.56 119.81,74.39" type="driving"/>
        <lane id="-3#4_2" index="2" disallow="pedestrian tram rail_urban rail rail_electric rail_fast ship" speed="17.88" length="17.61" width="3.50" shape="102.46,79.06 102.58,79.06 104.56,78.99 106.55,78.90 108.53,78.80 110.51,78.68 112.49,78.55 114.47,78.40 116.45,78.23 118.43,78.05 120.16,77.88" type="driving"/>
        <lane id="-3#4_3" index="3" disallow="pedestrian tram rail_urban rail rail_electric rail_fast ship" speed="17.88" length="17.61" width="3.50" shape="102.56,82.56 102.69,82.56 104.70,82.49 106.71,82.40 108.72,82.30 110.73,82.18 112.74,82.04 114.75,81.89 116.76,81.72 118.76,81.53 120.50,81.36" type="driving"/>
    </edge>
    <edge id="-7#0" from="10" to="7#1" priority="1" type="driving" shape="142.04,76.82 144.03,76.60 146.02,76.39 148.01,76.20 150.00,76.02 152.00,75.85 153.99,75.70 155.98,75.56 157.98,75.43 159.98,75.32 161.97,75.22 163.09,75.17">
        <lane id="-7#0_0" index="0" disallow="pedestrian tram rail_urban rail rail_electric rail_fast ship" speed="17.88" length="17.39" width="3.50" shape="141.47,71.60 143.47,71.38 145.50,71.17 147.52,70.97 149.55,70.79 151.58,70.62 153.60,70.46 155.63,70.32 157.67,70.19 158.89,70.12" type="driving"/>
        <lane id="-7#0_1" index="1" disallow="pedestrian tram rail_urban rail rail_electric rail_fast ship" speed="17.88" length="17.39" width="3.50" shape="141.85,75.08 143.84,74.86 145.84,74.65 147.85,74.46 149.85,74.28 151.86,74.11 153.86,73.96 155.87,73.81 157.88,73.69 159.08,73.62" type="driving"/>
    </edge>
    <edge id="-7#1" from="7#1" to="7#2" priority="1" type="driving" shape="163.09,75.17 163.97,75.13 165.97,75.06 167.97,75.00 169.23,74.97">
        <lane id="-7#1_0" index="0" disallow="pedestrian tram rail_urban rail rail_electric rail_fast ship" speed="17.88" length="0.53" width="3.50" shape="167.09,69.77 167.62,69.76" type="driving"/>
        <lane id="-7#1_1" index="1" disallow="pedestrian tram rail_urban rail rail_electric rail_fast ship" speed="17.88" length="0.53" width="3.50" shape="167.20,73.27 167.73,73.26" type="driving"/>
    </edge>
    <edge id="-7#2" from="7#2" to="7#3" priority="1" type="driving" shape="169.23,74.97 169.97,74.95 171.97,74.92 173.97,74.90 175.54,74.89">
        <lane id="-7#2_0" index="0" disallow="pedestrian tram rail_urban rail rail_electric rail_fast ship" speed="17.88" length="0.82" width="3.50" shape="170.73,69.69 171.55,69.68" type="driving"/>
        <lane id="-7#2_1" index="1" disallow="pedestrian tram rail_urban rail rail_electric rail_fast ship" speed="17.88" length="0.82" width="3.50" shape="170.79,73.19 171.61,73.18" type="driving"/>
    </edge>
    <edge id="-7#3" from="7#3" to="7.end" priority="1" type="driving" shape="175.54,74.89 175.97,74.89 177.97,74.90 179.97,74.92 181.97,74.95 183.97,75.00 185.97,75.06 187.97,75.13 189.96,75.22 191.96,75.32 193.96,75.43 195.95,75.55 197.95,75.69 199.94,75.85 201.94,76.01 203.93,76.19 205.92,76.38 207.91,76.59 209.90,76.81 210.48,76.87 265.96,83.27">