<?xml version="1.0" encoding="UTF-8"?>

<!-- generated on 2023-07-19 15:31:43 by Eclipse SUMO duarouter Version 1.13.0
<configuration xmlns:xsi="http://www.w3.org/2001/XMLSchema-instance" xsi:noNamespaceSchemaLocation="http://sumo.dlr.de/xsd/duarouterConfiguration.xsd">

    <input>
        <net-file value="outputfolder_FourWaySignal\FourWaySignal.net.xml"/>
        <route-files value="outputfolder_FourWaySignal\trips.trips.xml"/>
    </input>

    <output>
        <output-file value="outputfolder_FourWaySignal\result.rou.xml"/>
        <alternatives-output value="outputfolder_FourWaySignal\result.rou.alt.xml"/>
    </output>

</configuration>
-->

<routes xmlns:xsi="http://www.w3.org/2001/XMLSchema-instance" xsi:noNamespaceSchemaLocation="http://sumo.dlr.de/xsd/routes_file.xsd">
    <vehicle id="0" depart="0.00">
        <route edges="3#1 3#0 -3#0 -3#1 -3#2 -3#3 -3#4 -1#0"/>
    </vehicle>
</routes>
