<?xml version="1.0" encoding="UTF-8"?>
<!-- generated on 2023-07-19 15:31:43.523557 by randomTrips.py v1_13_0+0000-4b5bca80615
<configuration>
    <end value="1"/>
    <net-file value="outputfolder_FourWaySignal\FourWaySignal.net.xml"/>
</configuration>

-->
<routes xmlns:xsi="http://www.w3.org/2001/XMLSchema-instance" xsi:noNamespaceSchemaLocation="http://sumo.dlr.de/xsd/routes_file.xsd">
    <trip id="0" depart="0.00" from="3#1" to="-1#0"/>
</routes>
