<configuration> 
    <input> 
        <net-file value="ALKS_Scenario_4.4_2_CutInUnavoidableCollision_TEMPLATE.net.xml"/> 
        <route-files value="ALKS_Scenario_4.4_2_CutInUnavoidableCollision_TEMPLATE.rou.xml"/> 
    </input> 
    <time> 
        <begin value="0"/> 
        <end value="10000"/> 
        <step-length value="0.025"/> 
    </time> 
</configuration> 
