<?xml version="1.0" encoding="UTF-8"?>

<!-- generated on 2023-08-23 14:40:54.887546 by randomTrips.py v1_18_0+0000-03ecfdea036
<configuration>
    <net-file value="outputfolder_ALKS_Scenario_4_4_2_CutInUnavoidableCollision\OpenSCENARIO_output.net.xml"/>
    <end value="1"/>
    <allow-fringe value="True"/>
</configuration>
-->

<routes xmlns:xsi="http://www.w3.org/2001/XMLSchema-instance" xsi:noNamespaceSchemaLocation="http://sumo.dlr.de/xsd/routes_file.xsd">
    <trip id="0" depart="0.00" from="0" to="-0"/>
</routes>
