<?xml version="1.0" encoding="UTF-8"?>

<!-- generated on 2023-04-14 18:34:02 by Eclipse SUMO netedit Version 1.13.0
<configuration xmlns:xsi="http://www.w3.org/2001/XMLSchema-instance" xsi:noNamespaceSchemaLocation="http://sumo.dlr.de/xsd/netconvertConfiguration.xsd">

    <input>
        <sumo-net-file value="C:\Users\Napoleon%20the%20Beast\Documents\UnityProjects\Kopie-sumo-unity-atCity-presentation-tum-vt\SUMO\sumoNet2.net.xml"/>
    </input>

    <output>
        <output-file value="C:\Users\Napoleon%20the%20Beast\Documents\UnityProjects\Kopie-sumo-unity-atCity-presentation-tum-vt\SUMO\sumoNet2.net.xml"/>
    </output>

    <processing>
        <geometry.min-radius.fix.railways value="false"/>
        <geometry.max-grade.fix value="false"/>
        <offset.disable-normalization value="true"/>
        <lefthand value="false"/>
    </processing>

    <junctions>
        <no-turnarounds value="true"/>
        <junctions.corner-detail value="5"/>
        <junctions.limit-turn-speed value="5.5"/>
        <rectangular-lane-cut value="false"/>
    </junctions>

    <pedestrian>
        <walkingareas value="false"/>
    </pedestrian>

    <report>
        <aggregate-warnings value="5"/>
    </report>

</configuration>
-->

<net version="1.9" junctionCornerDetail="5" limitTurnSpeed="5.50" xmlns:xsi="http://www.w3.org/2001/XMLSchema-instance" xsi:noNamespaceSchemaLocation="http://sumo.dlr.de/xsd/net_file.xsd">

    <location netOffset="120.00,161.50" convBoundary="0.00,-0.20,240.00,286.50" origBoundary="-120.00,-161.50,120.00,125.00" projParameter="!"/>

    <type id="1L15" priority="3" numLanes="1" speed="8.00"/>

    <edge id=":A1_0" function="internal">
        <lane id=":A1_0_0" index="0" speed="8.00" length="3.08" shape="241.60,235.32 241.44,238.39"/>
    </edge>
    <edge id=":A1_1" function="internal">
        <lane id=":A1_1_0" index="0" speed="8.00" length="2.93" shape="238.06,238.22 238.20,237.36 238.31,236.78 238.38,236.19 238.40,235.32"/>
    </edge>
    <edge id=":A2_0" function="internal">
        <lane id=":A2_0_0" index="0" speed="6.51" length="9.03" shape="238.40,228.10 238.05,225.65 237.00,223.90 235.25,222.85 232.80,222.50"/>
    </edge>
    <edge id=":A2_1" function="internal">
        <lane id=":A2_1_0" index="0" speed="8.00" length="14.40" shape="238.40,228.10 238.40,213.70"/>
    </edge>
    <edge id=":A2_2" function="internal">
        <lane id=":A2_2_0" index="0" speed="3.65" length="4.67" shape="238.40,228.10 239.20,226.90 240.00,226.50 240.80,226.90 241.60,228.10"/>
    </edge>
    <edge id=":A2_3" function="internal">
        <lane id=":A2_3_0" index="0" speed="8.00" length="14.40" shape="241.60,213.70 241.60,228.10"/>
    </edge>
    <edge id=":A2_4" function="internal">
        <lane id=":A2_4_0" index="0" speed="8.00" length="14.19" shape="241.60,213.70 241.05,217.55 239.40,220.30 236.65,221.95 232.80,222.50"/>
    </edge>
    <edge id=":A2_5" function="internal">
        <lane id=":A2_5_0" index="0" speed="3.65" length="4.67" shape="241.60,213.70 240.80,214.90 240.00,215.30 239.20,214.90 238.40,213.70"/>
    </edge>
    <edge id=":A2_6" function="internal">
        <lane id=":A2_6_0" index="0" speed="6.51" length="9.03" shape="232.80,219.30 235.25,218.95 237.00,217.90 238.05,216.15 238.40,213.70"/>
    </edge>
    <edge id=":A2_7" function="internal">
        <lane id=":A2_7_0" index="0" speed="8.00" length="14.19" shape="232.80,219.30 236.65,219.85 239.40,221.50 241.05,224.25 241.60,228.10"/>
    </edge>
    <edge id=":A2_8" function="internal">
        <lane id=":A2_8_0" index="0" speed="3.65" length="4.67" shape="232.80,219.30 234.00,220.10 234.40,220.90 234.00,221.70 232.80,222.50"/>
    </edge>
    <edge id=":A3_0" function="internal">
        <lane id=":A3_0_0" index="0" speed="6.51" length="9.03" shape="238.40,168.70 238.05,166.25 237.00,164.50 235.25,163.45 232.80,163.10"/>
    </edge>
    <edge id=":A3_1" function="internal">
        <lane id=":A3_1_0" index="0" speed="8.00" length="14.40" shape="238.40,168.70 238.40,154.30"/>
    </edge>
    <edge id=":A3_2" function="internal">
        <lane id=":A3_2_0" index="0" speed="3.65" length="4.67" shape="238.40,168.70 239.20,167.50 240.00,167.10 240.80,167.50 241.60,168.70"/>
    </edge>
    <edge id=":A3_3" function="internal">
        <lane id=":A3_3_0" index="0" speed="8.00" length="14.40" shape="241.60,154.30 241.60,168.70"/>
    </edge>
    <edge id=":A3_4" function="internal">
        <lane id=":A3_4_0" index="0" speed="8.00" length="14.19" shape="241.60,154.30 241.05,158.15 239.40,160.90 236.65,162.55 232.80,163.10"/>
    </edge>
    <edge id=":A3_5" function="internal">
        <lane id=":A3_5_0" index="0" speed="3.65" length="4.67" shape="241.60,154.30 240.80,155.50 240.00,155.90 239.20,155.50 238.40,154.30"/>
    </edge>
    <edge id=":A3_6" function="internal">
        <lane id=":A3_6_0" index="0" speed="6.51" length="9.03" shape="232.80,159.90 235.25,159.55 237.00,158.50 238.05,156.75 238.40,154.30"/>
    </edge>
    <edge id=":A3_7" function="internal">
        <lane id=":A3_7_0" index="0" speed="8.00" length="14.19" shape="232.80,159.90 236.65,160.45 239.40,162.10 241.05,164.85 241.60,168.70"/>
    </edge>
    <edge id=":A3_8" function="internal">
        <lane id=":A3_8_0" index="0" speed="3.65" length="4.67" shape="232.80,159.90 234.00,160.70 234.40,161.50 234.00,162.30 232.80,163.10"/>
    </edge>
    <edge id=":A4_0" function="internal">
        <lane id=":A4_0_0" index="0" speed="3.90" length="2.58" shape="238.40,68.90 238.30,68.20 238.00,67.70 237.50,67.40 236.80,67.30"/>
    </edge>
    <edge id=":A4_1" function="internal">
        <lane id=":A4_1_0" index="0" speed="6.08" length="7.74" shape="236.80,64.10 238.90,64.40 240.40,65.30 241.30,66.80 241.60,68.90"/>
    </edge>
    <edge id=":B1_0" function="internal">
        <lane id=":B1_0_0" index="0" speed="8.00" length="0.52" shape="189.34,288.08 188.83,288.10"/>
    </edge>
    <edge id=":B1_1" function="internal">
        <lane id=":B1_1_0" index="0" speed="8.00" length="0.17" shape="188.83,284.90 188.88,284.90 188.91,284.90 188.95,284.90 189.00,284.89"/>
    </edge>
    <edge id=":B2_0" function="internal">
        <lane id=":B2_0_0" index="0" speed="8.00" length="14.40" shape="175.20,67.30 160.80,67.30"/>
    </edge>
    <edge id=":B2_1" function="internal">
        <lane id=":B2_1_0" index="0" speed="8.00" length="14.19" shape="175.20,67.30 171.35,66.75 168.60,65.10 166.95,62.35 166.40,58.50"/>
    </edge>
    <edge id=":B2_2" function="internal">
        <lane id=":B2_2_0" index="0" speed="3.65" length="4.67" shape="175.20,67.30 174.00,66.50 173.60,65.70 174.00,64.90 175.20,64.10"/>
    </edge>
    <edge id=":B2_3" function="internal">
        <lane id=":B2_3_0" index="0" speed="6.51" length="9.03" shape="169.60,58.50 169.95,60.95 171.00,62.70 172.75,63.75 175.20,64.10"/>
    </edge>
    <edge id=":B2_4" function="internal">
        <lane id=":B2_4_0" index="0" speed="8.00" length="14.19" shape="169.60,58.50 169.05,62.35 167.40,65.10 164.65,66.75 160.80,67.30"/>
    </edge>
    <edge id=":B2_5" function="internal">
        <lane id=":B2_5_0" index="0" speed="3.65" length="4.67" shape="169.60,58.50 168.80,59.70 168.00,60.10 167.20,59.70 166.40,58.50"/>
    </edge>
    <edge id=":B2_6" function="internal">
        <lane id=":B2_6_0" index="0" speed="6.51" length="9.03" shape="160.80,64.10 163.25,63.75 165.00,62.70 166.05,60.95 166.40,58.50"/>
    </edge>
    <edge id=":B2_7" function="internal">
        <lane id=":B2_7_0" index="0" speed="8.00" length="14.40" shape="160.80,64.10 175.20,64.10"/>
    </edge>
    <edge id=":B2_8" function="internal">
        <lane id=":B2_8_0" index="0" speed="3.65" length="4.67" shape="160.80,64.10 162.00,64.90 162.40,65.70 162.00,66.50 160.80,67.30"/>
    </edge>
    <edge id=":B3_0" function="internal">
        <lane id=":B3_0_0" index="0" speed="8.00" length="0.11" shape="166.40,51.50 166.40,51.61"/>
    </edge>
    <edge id=":B3_1" function="internal">
        <lane id=":B3_1_0" index="0" speed="8.00" length="0.19" shape="169.60,51.31 169.60,51.50"/>
    </edge>
    <edge id=":C1_0" function="internal">
        <lane id=":C1_0_0" index="0" speed="8.00" length="14.40" shape="127.20,288.10 112.80,288.10"/>
    </edge>
    <edge id=":C1_1" function="internal">
        <lane id=":C1_1_0" index="0" speed="8.00" length="14.19" shape="127.20,288.10 123.35,287.55 120.60,285.90 118.95,283.15 118.40,279.30"/>
    </edge>
    <edge id=":C1_2" function="internal">
        <lane id=":C1_2_0" index="0" speed="3.65" length="4.67" shape="127.20,288.10 126.00,287.30 125.60,286.50 126.00,285.70 127.20,284.90"/>
    </edge>
    <edge id=":C1_3" function="internal">
        <lane id=":C1_3_0" index="0" speed="6.51" length="9.03" shape="121.60,279.30 121.95,281.75 123.00,283.50 124.75,284.55 127.20,284.90"/>
    </edge>
    <edge id=":C1_4" function="internal">
        <lane id=":C1_4_0" index="0" speed="8.00" length="14.19" shape="121.60,279.30 121.05,283.15 119.40,285.90 116.65,287.55 112.80,288.10"/>
    </edge>
    <edge id=":C1_5" function="internal">
        <lane id=":C1_5_0" index="0" speed="3.65" length="4.67" shape="121.60,279.30 120.80,280.50 120.00,280.90 119.20,280.50 118.40,279.30"/>
    </edge>
    <edge id=":C1_6" function="internal">
        <lane id=":C1_6_0" index="0" speed="6.51" length="9.03" shape="112.80,284.90 115.25,284.55 117.00,283.50 118.05,281.75 118.40,279.30"/>
    </edge>
    <edge id=":C1_7" function="internal">
        <lane id=":C1_7_0" index="0" speed="8.00" length="14.40" shape="112.80,284.90 127.20,284.90"/>
    </edge>
    <edge id=":C1_8" function="internal">
        <lane id=":C1_8_0" index="0" speed="3.65" length="4.67" shape="112.80,284.90 114.00,285.70 114.40,286.50 114.00,287.30 112.80,288.10"/>
    </edge>
    <edge id=":C2_0" function="internal">
        <lane id=":C2_0_0" index="0" speed="8.00" length="14.40" shape="118.40,228.10 118.40,213.70"/>
    </edge>
    <edge id=":C2_1" function="internal">
        <lane id=":C2_1_0" index="0" speed="8.00" length="14.19" shape="118.40,228.10 118.95,224.25 120.60,221.50 123.35,219.85 127.20,219.30"/>
    </edge>
    <edge id=":C2_2" function="internal">
        <lane id=":C2_2_0" index="0" speed="3.65" length="4.67" shape="118.40,228.10 119.20,226.90 120.00,226.50 120.80,226.90 121.60,228.10"/>
    </edge>
    <edge id=":C2_3" function="internal">
        <lane id=":C2_3_0" index="0" speed="6.51" length="9.03" shape="127.20,222.50 124.75,222.85 123.00,223.90 121.95,225.65 121.60,228.10"/>
    </edge>
    <edge id=":C2_4" function="internal">
        <lane id=":C2_4_0" index="0" speed="8.00" length="14.19" shape="127.20,222.50 123.35,221.95 120.60,220.30 118.95,217.55 118.40,213.70"/>
    </edge>
    <edge id=":C2_5" function="internal">
        <lane id=":C2_5_0" index="0" speed="3.65" length="4.67" shape="127.20,222.50 126.00,221.70 125.60,220.90 126.00,220.10 127.20,219.30"/>
    </edge>
    <edge id=":C2_6" function="internal">
        <lane id=":C2_6_0" index="0" speed="6.51" length="9.03" shape="121.60,213.70 121.95,216.15 123.00,217.90 124.75,218.95 127.20,219.30"/>
    </edge>
    <edge id=":C2_7" function="internal">
        <lane id=":C2_7_0" index="0" speed="8.00" length="14.40" shape="121.60,213.70 121.60,228.10"/>
    </edge>
    <edge id=":C2_8" function="internal">
        <lane id=":C2_8_0" index="0" speed="3.65" length="4.67" shape="121.60,213.70 120.80,214.90 120.00,215.30 119.20,214.90 118.40,213.70"/>
    </edge>
    <edge id=":C3_0" function="internal">
        <lane id=":C3_0_0" index="0" speed="6.51" length="9.03" shape="118.41,168.70 118.06,166.25 117.01,164.50 115.26,163.45 112.81,163.10"/>
    </edge>
    <edge id=":C3_1" function="internal">
        <lane id=":C3_1_0" index="0" speed="8.00" length="14.40" shape="118.41,168.70 118.41,154.30"/>
    </edge>
    <edge id=":C3_2" function="internal">
        <lane id=":C3_2_0" index="0" speed="8.00" length="4.07" shape="118.41,168.70 118.96,164.85 119.05,164.70"/>
    </edge>
    <edge id=":C3_3" function="internal">
        <lane id=":C3_3_0" index="0" speed="3.65" length="1.44" shape="118.41,168.70 119.21,167.50"/>
    </edge>
    <edge id=":C3_16" function="internal">
        <lane id=":C3_16_0" index="0" speed="8.00" length="10.13" shape="119.05,164.70 120.61,162.10 123.36,160.45 127.21,159.90"/>
    </edge>
    <edge id=":C3_17" function="internal">
        <lane id=":C3_17_0" index="0" speed="3.65" length="3.23" shape="119.21,167.50 120.01,167.10 120.81,167.50 121.61,168.70"/>
    </edge>
    <edge id=":C3_4" function="internal">
        <lane id=":C3_4_0" index="0" speed="6.51" length="9.03" shape="127.21,163.10 124.76,163.45 123.01,164.50 121.96,166.25 121.61,168.70"/>
    </edge>
    <edge id=":C3_5" function="internal">
        <lane id=":C3_5_0" index="0" speed="8.00" length="14.40" shape="127.21,163.10 112.81,163.10"/>
    </edge>
    <edge id=":C3_6" function="internal">
        <lane id=":C3_6_0" index="0" speed="8.00" length="4.07" shape="127.21,163.10 123.36,162.55 123.21,162.46"/>
    </edge>
    <edge id=":C3_7" function="internal">
        <lane id=":C3_7_0" index="0" speed="3.65" length="1.44" shape="127.21,163.10 126.01,162.30"/>
    </edge>
    <edge id=":C3_18" function="internal">
        <lane id=":C3_18_0" index="0" speed="8.00" length="10.13" shape="123.21,162.46 120.61,160.90 118.96,158.15 118.41,154.30"/>
    </edge>
    <edge id=":C3_19" function="internal">
        <lane id=":C3_19_0" index="0" speed="3.65" length="3.23" shape="126.01,162.30 125.61,161.50 126.01,160.70 127.21,159.90"/>
    </edge>
    <edge id=":C3_8" function="internal">
        <lane id=":C3_8_0" index="0" speed="6.51" length="9.03" shape="121.61,154.30 121.96,156.75 123.01,158.50 124.76,159.55 127.21,159.90"/>
    </edge>
    <edge id=":C3_9" function="internal">
        <lane id=":C3_9_0" index="0" speed="8.00" length="14.40" shape="121.61,154.30 121.61,168.70"/>
    </edge>
    <edge id=":C3_10" function="internal">
        <lane id=":C3_10_0" index="0" speed="8.00" length="4.07" shape="121.61,154.30 121.06,158.15 120.97,158.30"/>
    </edge>
    <edge id=":C3_11" function="internal">
        <lane id=":C3_11_0" index="0" speed="3.65" length="1.44" shape="121.61,154.30 120.81,155.50"/>
    </edge>
    <edge id=":C3_20" function="internal">
        <lane id=":C3_20_0" index="0" speed="8.00" length="10.13" shape="120.97,158.30 119.41,160.90 116.66,162.55 112.81,163.10"/>
    </edge>
    <edge id=":C3_21" function="internal">
        <lane id=":C3_21_0" index="0" speed="3.65" length="3.23" shape="120.81,155.50 120.01,155.90 119.21,155.50 118.41,154.30"/>
    </edge>
    <edge id=":C3_12" function="internal">
        <lane id=":C3_12_0" index="0" speed="6.51" length="9.03" shape="112.81,159.90 115.26,159.55 117.01,158.50 118.06,156.75 118.41,154.30"/>
    </edge>
    <edge id=":C3_13" function="internal">
        <lane id=":C3_13_0" index="0" speed="8.00" length="14.40" shape="112.81,159.90 127.21,159.90"/>
    </edge>
    <edge id=":C3_14" function="internal">
        <lane id=":C3_14_0" index="0" speed="8.00" length="4.07" shape="112.81,159.90 116.66,160.45 116.81,160.54"/>
    </edge>
    <edge id=":C3_15" function="internal">
        <lane id=":C3_15_0" index="0" speed="3.65" length="1.44" shape="112.81,159.90 114.01,160.70"/>
    </edge>
    <edge id=":C3_22" function="internal">
        <lane id=":C3_22_0" index="0" speed="8.00" length="10.13" shape="116.81,160.54 119.41,162.10 121.06,164.85 121.61,168.70"/>
    </edge>
    <edge id=":C3_23" function="internal">
        <lane id=":C3_23_0" index="0" speed="3.65" length="3.23" shape="114.01,160.70 114.41,161.50 114.01,162.30 112.81,163.10"/>
    </edge>
    <edge id=":C4_0" function="internal">
        <lane id=":C4_0_0" index="0" speed="6.51" length="9.03" shape="118.40,72.90 118.05,70.45 117.00,68.70 115.25,67.65 112.80,67.30"/>
    </edge>
    <edge id=":C4_1" function="internal">
        <lane id=":C4_1_0" index="0" speed="8.00" length="14.19" shape="118.40,72.90 118.95,69.05 120.60,66.30 123.35,64.65 127.20,64.10"/>
    </edge>
    <edge id=":C4_2" function="internal">
        <lane id=":C4_2_0" index="0" speed="3.65" length="4.67" shape="118.40,72.90 119.20,71.70 120.00,71.30 120.80,71.70 121.60,72.90"/>
    </edge>
    <edge id=":C4_3" function="internal">
        <lane id=":C4_3_0" index="0" speed="6.51" length="9.03" shape="127.20,67.30 124.75,67.65 123.00,68.70 121.95,70.45 121.60,72.90"/>
    </edge>
    <edge id=":C4_4" function="internal">
        <lane id=":C4_4_0" index="0" speed="8.00" length="14.40" shape="127.20,67.30 112.80,67.30"/>
    </edge>
    <edge id=":C4_5" function="internal">
        <lane id=":C4_5_0" index="0" speed="3.65" length="4.67" shape="127.20,67.30 126.00,66.50 125.60,65.70 126.00,64.90 127.20,64.10"/>
    </edge>
    <edge id=":C4_6" function="internal">
        <lane id=":C4_6_0" index="0" speed="8.00" length="14.40" shape="112.80,64.10 127.20,64.10"/>
    </edge>
    <edge id=":C4_7" function="internal">
        <lane id=":C4_7_0" index="0" speed="8.00" length="14.19" shape="112.80,64.10 116.65,64.65 119.40,66.30 121.05,69.05 121.60,72.90"/>
    </edge>
    <edge id=":C4_8" function="internal">
        <lane id=":C4_8_0" index="0" speed="3.65" length="4.67" shape="112.80,64.10 114.00,64.90 114.40,65.70 114.00,66.50 112.80,67.30"/>
    </edge>
    <edge id=":C5_0" function="internal">
        <lane id=":C5_0_0" index="0" speed="8.00" length="0.31" shape="114.26,1.43 114.17,1.42 114.11,1.42 114.04,1.42 113.95,1.44"/>
    </edge>
    <edge id=":C5_1" function="internal">
        <lane id=":C5_1_0" index="0" speed="8.00" length="0.92" shape="113.58,-1.75 113.85,-1.78 114.04,-1.79 114.23,-1.80 114.50,-1.78"/>
    </edge>
    <edge id=":D1_0" function="internal">
        <lane id=":D1_0_0" index="0" speed="8.00" length="0.30" shape="51.17,288.10 50.88,288.10"/>
    </edge>
    <edge id=":D1_1" function="internal">
        <lane id=":D1_1_0" index="0" speed="8.00" length="0.12" shape="51.05,284.90 51.08,284.90 51.11,284.90 51.13,284.90 51.17,284.90"/>
    </edge>
    <edge id=":D2_0" function="internal">
        <lane id=":D2_0_0" index="0" speed="8.00" length="14.40" shape="73.20,163.10 58.80,163.10"/>
    </edge>
    <edge id=":D2_1" function="internal">
        <lane id=":D2_1_0" index="0" speed="8.00" length="4.07" shape="73.20,163.10 69.35,162.55 69.20,162.46"/>
    </edge>
    <edge id=":D2_2" function="internal">
        <lane id=":D2_2_0" index="0" speed="3.65" length="1.44" shape="73.20,163.10 72.00,162.30"/>
    </edge>
    <edge id=":D2_9" function="internal">
        <lane id=":D2_9_0" index="0" speed="8.00" length="10.13" shape="69.20,162.46 66.60,160.90 64.95,158.15 64.40,154.30"/>
    </edge>
    <edge id=":D2_10" function="internal">
        <lane id=":D2_10_0" index="0" speed="3.65" length="3.23" shape="72.00,162.30 71.60,161.50 72.00,160.70 73.20,159.90"/>
    </edge>
    <edge id=":D2_3" function="internal">
        <lane id=":D2_3_0" index="0" speed="6.51" length="9.03" shape="67.60,154.30 67.95,156.75 69.00,158.50 70.75,159.55 73.20,159.90"/>
    </edge>
    <edge id=":D2_4" function="internal">
        <lane id=":D2_4_0" index="0" speed="8.00" length="14.19" shape="67.60,154.30 67.05,158.15 65.40,160.90 62.65,162.55 58.80,163.10"/>
    </edge>
    <edge id=":D2_5" function="internal">
        <lane id=":D2_5_0" index="0" speed="3.65" length="1.44" shape="67.60,154.30 66.80,155.50"/>
    </edge>
    <edge id=":D2_11" function="internal">
        <lane id=":D2_11_0" index="0" speed="3.65" length="3.23" shape="66.80,155.50 66.00,155.90 65.20,155.50 64.40,154.30"/>
    </edge>
    <edge id=":D2_6" function="internal">
        <lane id=":D2_6_0" index="0" speed="6.51" length="9.03" shape="58.80,159.90 61.25,159.55 63.00,158.50 64.05,156.75 64.40,154.30"/>
    </edge>
    <edge id=":D2_7" function="internal">
        <lane id=":D2_7_0" index="0" speed="8.00" length="14.40" shape="58.80,159.90 73.20,159.90"/>
    </edge>
    <edge id=":D2_8" function="internal">
        <lane id=":D2_8_0" index="0" speed="3.65" length="1.44" shape="58.80,159.90 60.00,160.70"/>
    </edge>
    <edge id=":D2_12" function="internal">
        <lane id=":D2_12_0" index="0" speed="3.65" length="3.23" shape="60.00,160.70 60.40,161.50 60.00,162.30 58.80,163.10"/>
    </edge>
    <edge id=":D3_0" function="internal">
        <lane id=":D3_0_0" index="0" speed="6.51" length="9.03" shape="64.40,72.90 64.05,70.45 63.00,68.70 61.25,67.65 58.80,67.30"/>
    </edge>
    <edge id=":D3_1" function="internal">
        <lane id=":D3_1_0" index="0" speed="8.00" length="14.40" shape="64.40,72.90 64.40,58.50"/>
    </edge>
    <edge id=":D3_2" function="internal">
        <lane id=":D3_2_0" index="0" speed="8.00" length="14.19" shape="64.40,72.90 64.95,69.05 66.60,66.30 69.35,64.65 73.20,64.10"/>
    </edge>
    <edge id=":D3_3" function="internal">
        <lane id=":D3_3_0" index="0" speed="3.65" length="4.67" shape="64.40,72.90 65.20,71.70 66.00,71.30 66.80,71.70 67.60,72.90"/>
    </edge>
    <edge id=":D3_4" function="internal">
        <lane id=":D3_4_0" index="0" speed="6.51" length="9.03" shape="73.20,67.30 70.75,67.65 69.00,68.70 67.95,70.45 67.60,72.90"/>
    </edge>
    <edge id=":D3_5" function="internal">
        <lane id=":D3_5_0" index="0" speed="8.00" length="14.40" shape="73.20,67.30 58.80,67.30"/>
    </edge>
    <edge id=":D3_6" function="internal">
        <lane id=":D3_6_0" index="0" speed="8.00" length="14.19" shape="73.20,67.30 69.35,66.75 66.60,65.10 64.95,62.35 64.40,58.50"/>
    </edge>
    <edge id=":D3_7" function="internal">
        <lane id=":D3_7_0" index="0" speed="3.65" length="4.67" shape="73.20,67.30 72.00,66.50 71.60,65.70 72.00,64.90 73.20,64.10"/>
    </edge>
    <edge id=":D3_8" function="internal">
        <lane id=":D3_8_0" index="0" speed="6.51" length="9.03" shape="67.60,58.50 67.95,60.95 69.00,62.70 70.75,63.75 73.20,64.10"/>
    </edge>
    <edge id=":D3_9" function="internal">
        <lane id=":D3_9_0" index="0" speed="8.00" length="14.40" shape="67.60,58.50 67.60,72.90"/>
    </edge>
    <edge id=":D3_10" function="internal">
        <lane id=":D3_10_0" index="0" speed="8.00" length="14.19" shape="67.60,58.50 67.05,62.35 65.40,65.10 62.65,66.75 58.80,67.30"/>
    </edge>
    <edge id=":D3_11" function="internal">
        <lane id=":D3_11_0" index="0" speed="3.65" length="4.67" shape="67.60,58.50 66.80,59.70 66.00,60.10 65.20,59.70 64.40,58.50"/>
    </edge>
    <edge id=":D3_12" function="internal">
        <lane id=":D3_12_0" index="0" speed="6.51" length="9.03" shape="58.80,64.10 61.25,63.75 63.00,62.70 64.05,60.95 64.40,58.50"/>
    </edge>
    <edge id=":D3_13" function="internal">
        <lane id=":D3_13_0" index="0" speed="8.00" length="14.40" shape="58.80,64.10 73.20,64.10"/>
    </edge>
    <edge id=":D3_14" function="internal">
        <lane id=":D3_14_0" index="0" speed="8.00" length="14.19" shape="58.80,64.10 62.65,64.65 65.40,66.30 67.05,69.05 67.60,72.90"/>
    </edge>
    <edge id=":D3_15" function="internal">
        <lane id=":D3_15_0" index="0" speed="3.65" length="4.67" shape="58.80,64.10 60.00,64.90 60.40,65.70 60.00,66.50 58.80,67.30"/>
    </edge>
    <edge id=":D4_0" function="internal">
        <lane id=":D4_0_0" index="0" speed="8.00" length="0.21" shape="51.06,67.30 51.00,67.30 50.95,67.30 50.91,67.31 50.85,67.31"/>
    </edge>
    <edge id=":D4_1" function="internal">
        <lane id=":D4_1_0" index="0" speed="8.00" length="0.62" shape="50.44,64.13 50.62,64.11 50.75,64.10 50.87,64.10 51.06,64.10"/>
    </edge>
    <edge id=":D5_0" function="internal">
        <lane id=":D5_0_0" index="0" speed="8.00" length="3.04" shape="64.40,51.68 64.49,48.65"/>
    </edge>
    <edge id=":D5_1" function="internal">
        <lane id=":D5_1_0" index="0" speed="8.00" length="2.97" shape="67.94,48.74 67.80,49.61 67.70,50.20 67.63,50.80 67.60,51.68"/>
    </edge>
    <edge id=":E1_0" function="internal">
        <lane id=":E1_0_0" index="0" speed="8.00" length="0.54" shape="-1.58,235.86 -1.60,235.32"/>
    </edge>
    <edge id=":E1_1" function="internal">
        <lane id=":E1_1_0" index="0" speed="8.00" length="0.18" shape="1.60,235.32 1.60,235.37 1.60,235.41 1.60,235.45 1.61,235.50"/>
    </edge>
    <edge id=":E2_0" function="internal">
        <lane id=":E2_0_0" index="0" speed="8.00" length="14.40" shape="-1.60,168.70 -1.60,154.30"/>
    </edge>
    <edge id=":E2_1" function="internal">
        <lane id=":E2_1_0" index="0" speed="8.00" length="14.19" shape="-1.60,168.70 -1.05,164.85 0.60,162.10 3.35,160.45 7.20,159.90"/>
    </edge>
    <edge id=":E2_2" function="internal">
        <lane id=":E2_2_0" index="0" speed="3.65" length="4.67" shape="-1.60,168.70 -0.80,167.50 0.00,167.10 0.80,167.50 1.60,168.70"/>
    </edge>
    <edge id=":E2_3" function="internal">
        <lane id=":E2_3_0" index="0" speed="6.51" length="9.03" shape="7.20,163.10 4.75,163.45 3.00,164.50 1.95,166.25 1.60,168.70"/>
    </edge>
    <edge id=":E2_4" function="internal">
        <lane id=":E2_4_0" index="0" speed="8.00" length="14.19" shape="7.20,163.10 3.35,162.55 0.60,160.90 -1.05,158.15 -1.60,154.30"/>
    </edge>
    <edge id=":E2_5" function="internal">
        <lane id=":E2_5_0" index="0" speed="3.65" length="4.67" shape="7.20,163.10 6.00,162.30 5.60,161.50 6.00,160.70 7.20,159.90"/>
    </edge>
    <edge id=":E2_6" function="internal">
        <lane id=":E2_6_0" index="0" speed="6.51" length="9.03" shape="1.60,154.30 1.95,156.75 3.00,158.50 4.75,159.55 7.20,159.90"/>
    </edge>
    <edge id=":E2_7" function="internal">
        <lane id=":E2_7_0" index="0" speed="8.00" length="14.40" shape="1.60,154.30 1.60,168.70"/>
    </edge>
    <edge id=":E2_8" function="internal">
        <lane id=":E2_8_0" index="0" speed="3.65" length="4.67" shape="1.60,154.30 0.80,155.50 0.00,155.90 -0.80,155.50 -1.60,154.30"/>
    </edge>
    <edge id=":E3_0" function="internal">
        <lane id=":E3_0_0" index="0" speed="8.00" length="0.53" shape="-1.60,116.69 -1.60,116.53 -1.60,116.42 -1.59,116.31 -1.57,116.16"/>
    </edge>
    <edge id=":E3_1" function="internal">
        <lane id=":E3_1_0" index="0" speed="8.00" length="0.18" shape="1.61,116.51 1.60,116.56 1.60,116.60 1.60,116.63 1.60,116.69"/>
    </edge>

    <edge id="a12" from="A1" to="A2" priority="3" type="1L15">
        <lane id="a12_0" index="0" speed="8.00" length="7.22" shape="238.40,235.32 238.40,228.10"/>
    </edge>
    <edge id="a1b1" from="A1" to="B1" priority="3" type="1L15" shape="240.00,235.50 239.90,237.52 239.75,239.51 239.57,241.45 239.34,243.35 239.08,245.21 238.77,247.03 238.42,248.81 238.04,250.55 237.61,252.24 237.14,253.90 236.63,255.51 236.07,257.09 235.48,258.62 234.85,260.11 234.17,261.57 233.46,262.98 232.70,264.34 231.90,265.67 231.07,266.96 230.19,268.21 229.27,269.41 228.31,270.58 227.31,271.70 226.26,272.78 225.18,273.83 224.06,274.83 222.89,275.79 221.69,276.71 220.44,277.59 219.15,278.42 217.83,279.22 216.46,279.98 215.05,280.69 213.60,281.36 212.11,282.00 210.57,282.59 209.00,283.14 207.39,283.65 205.73,284.12 204.04,284.55 202.30,284.93 200.52,285.28 198.70,285.59 196.84,285.85 194.94,286.07 193.00,286.26 191.02,286.40 189.00,286.50">
        <lane id="a1b1_0" index="0" speed="8.00" length="80.62" shape="241.44,238.39 241.34,239.64 241.16,241.62 240.93,243.56 240.66,245.45 240.34,247.32 239.99,249.13 239.60,250.92 239.16,252.66 238.67,254.36 238.15,256.02 237.57,257.64 236.96,259.22 236.31,260.76 235.61,262.27 234.87,263.73 234.08,265.14 233.26,266.52 232.40,267.85 231.48,269.16 230.52,270.40 229.53,271.62 228.48,272.79 227.39,273.91 226.27,275.00 225.10,276.05 223.88,277.04 222.64,278.00 221.33,278.92 220.00,279.78 218.63,280.60 217.21,281.39 215.75,282.13 214.25,282.82 212.71,283.48 211.12,284.09 209.51,284.66 207.85,285.18 206.15,285.67 204.41,286.11 202.62,286.50 200.81,286.85 198.94,287.17 197.04,287.44 195.11,287.66 193.13,287.85 191.12,288.00 189.34,288.08"/>
    </edge>
    <edge id="a21" from="A2" to="A1" priority="3" type="1L15">
        <lane id="a21_0" index="0" speed="8.00" length="7.22" shape="241.60,228.10 241.60,235.32"/>
    </edge>
    <edge id="a23" from="A2" to="A3" priority="3" type="1L15">
        <lane id="a23_0" index="0" speed="8.00" length="45.00" shape="238.40,213.70 238.40,168.70"/>
    </edge>
    <edge id="a2c2" from="A2" to="C2" priority="3" type="1L15">
        <lane id="a2c2_0" index="0" speed="8.00" length="105.60" shape="232.80,222.50 127.20,222.50"/>
    </edge>
    <edge id="a32" from="A3" to="A2" priority="3" type="1L15">
        <lane id="a32_0" index="0" speed="8.00" length="45.00" shape="241.60,168.70 241.60,213.70"/>
    </edge>
    <edge id="a34" from="A3" to="A4" priority="3" type="1L15">
        <lane id="a34_0" index="0" speed="8.00" length="85.40" shape="238.40,154.30 238.40,68.90"/>
    </edge>
    <edge id="a3c3" from="A3" to="C3" priority="3" type="1L15">
        <lane id="a3c3_0" index="0" speed="8.00" length="105.59" shape="232.80,163.10 127.21,163.10"/>
    </edge>
    <edge id="a43" from="A4" to="A3" priority="3" type="1L15">
        <lane id="a43_0" index="0" speed="8.00" length="85.40" shape="241.60,68.90 241.60,154.30"/>
    </edge>
    <edge id="a4b2" from="A4" to="B2" priority="3" type="1L15">
        <lane id="a4b2_0" index="0" speed="8.00" length="61.60" shape="236.80,67.30 175.20,67.30"/>
    </edge>